* Converted from verilog for microfluidic simulation

YPressurePump soln1 soln1_0 soln1_0c  pressure=100k chemConcentration=100m 
Ychannel soln1_channel soln1_0 soln1_1 soln1_0c soln1_1c length=7.65m


Ychannel output0 out_ch 0 out_chC outc0 length=5.9m
Ychannel connect1 connect1_0 connect1_1 connect1_0c connect1_1c length=1.18m
Ychannel connect2 connect2_0 connect2_1 connect2_0c connect2_1c length=1.18m
Ychannel connect3 connect3_0 connect3_1 connect3_0c connect3_1c length=2.15m
Ychannel connect4 connect4_0 connect4_1 connect4_0c connect4_1c length=3.27m
Ychannel connect5 connect5_0 connect5_1 connect5_0c connect5_1c length=15.05m
Yserpentine_50px_0 serp1 soln1_1 connect1_0 soln1_1c connect1_0c 
Yserpentine_150px_0 serp2 connect1_1 connect2_0 connect1_1c connect2_0c 
Yserpentine_300px_0 serp4 connect2_1 connect3_0 connect2_1c connect3_0c 
Yserpentine_300px_0 serp5 connect3_1 connect4_0 connect3_1c connect4_0c 
Yserpentine_300px_0 serp6 connect4_1 connect5_0 connect4_1c connect5_0c 
Yserpentine_300px_0 serp11 connect5_1 out_ch connect5_1c out_chC 


.tran 0.1 1
.print tran V(out_chC)
.end

*.tran 0.1ms 1ms