channel_flow

.control
pre_osdi channel_flow.osdi
.endc

.model channel_flow_model channel_flow length=5m width=5u height=1u
.subckt channel in out PARAMS: length=5m width=5u height=1u
N1 in out channel_flow_model length=length width=width height=height
.ends
