pressure_source_square

.control
pre_osdi pressure_source_square.osdi
.endc

.model pressure_source_square_model pressure_source_square length=5m
.subckt pressure_src_square IN OUT
N1 plus minus pressure_source_square_model
.ends
