pressure_source_triangle

.control
pre_osdi pressure_source_triangle.osdi
.endc

.model pressure_source_triangle_model pressure_source_triangle length=5m
.subckt pressure_src_triangle IN OUT
N1 plus minus 2 pressure_source_triangle_model
.ends
